Copyright (c) 1994-2000 by Todd M. Austin.  All Rights Reserved.
This version of SimpleScalar is licensed for academic non-commercial use only.

warning: section `.comment' ignored...
sim: command line: sim-safe -max:inst 100000000 gcc00.peak.ev6 expr.i -o expr.s -pred BPred3GS1 -redir:sim gcc_3GS1.txt 

sim: simulation started @ Tue Feb 28 21:48:05 2012, options follow:

sim-safe: This simulator implements a functional simulator.  This
functional simulator is the simplest, most user-friendly simulator in the
simplescalar tool set.  Unlike sim-fast, this functional simulator checks
for all instruction errors, and the implementation is crafted for clarity
rather than speed.

# -config                     # load configuration from a file
# -dumpconfig                 # dump configuration to a file
# -h                    false # print help message    
# -v                    false # verbose operation     
# -d                    false # enable debug message  
# -i                    false # start in Dlite debugger
-seed                       1 # random number generator seed (0 for timer seed)
# -q                    false # initialize and terminate immediately
# -chkpt               <null> # restore EIO trace execution from <fname>
# -redir:sim           <null> # redirect simulator output to file (non-interactive only)
# -redir:prog          <null> # redirect simulated program output to file
-nice                       0 # simulator scheduling priority
-max:inst           100000000 # maximum number of inst's to execute
-bpred              BPred1bit # branch predictor type 

sim: ** starting functional simulation **
warning: partially supported sigaction() call...
gcc00.peak.ev6: Invalid option `-pred'
gcc00.peak.ev6: Invalid option `-redir:sim'
gcc00.peak.ev6: gcc_3GS1.txt: No such file or directory
warning: partially supported sigprocmask() call...

sim: ** simulation statistics **
sim_num_insn                 122844 # total number of instructions executed
sim_num_refs                  23428 # total number of loads and stores executed
sim_elapsed_time                  1 # total simulation time in seconds
sim_inst_rate           122844.0000 # simulation speed (in insts/sec)
sim_num_condbranch            17434 # total number of conditional branches
sim_num_branch                22300 # total number of braches
inst_branch_rate             0.1815 # The % of inst. that are branches
inst_condbranch_rate         0.7818 # The % of branches that are cond branches
num_corr_pred                 14398 # total number of correct predictionss
pred_rate                    0.8259 # the prediction accuracy of current skeme

